366
No info
Au       0.0000000000000000        0.8523992020000000       13.7944741769999997
Au       0.0000000000000000        2.5572442170000000       18.6164999999999985
Au       0.0000000000000000        2.5572442170000000       11.3834700000000009
Au       0.0000000000000000        4.2620872319999998       16.2054891770000005
Au       0.0000000000000000        5.9669342470000002       13.7944741769999997
Au       0.0000000000000000        7.6717792620000003       18.6165011770000000
Au       0.0000000000000000        7.6717792620000003       11.3834700000000009
Au       0.0000000000000000        9.3766222769999992       16.2054891770000005
Au       0.0000000000000000       11.0814682920000003       13.7944741769999997
Au       0.0000000000000000       12.7863133070000003       18.6165011770000000
Au       0.0000000000000000       12.7863133070000003       11.3834700000000009
Au       0.0000000000000000       14.4911563220000001       16.2054891770000005
Au       1.4764387170000000        0.0000000000000000       11.3834700000000009
Au       1.4764387170000000        1.7048222099999999       16.2054891770000005
Au       1.4764387170000000        3.4096682249999999       13.7944741769999997
Au       1.4764387170000000        5.1145112399999997       18.6165011770000000
Au       1.4764387170000000        5.1145112399999997       11.3834700000000009
Au       1.4764387170000000        6.8193562549999998       16.2054891770000005
Au       1.4764387170000000        8.5242032699999992       13.7944741769999997
Au       1.4764387170000000       10.2290462840000007       18.6165011770000000
Au       1.4764387170000000       10.2290462840000007       11.3834700000000009
Au       1.4764387170000000       11.9338912990000008       16.2054891770000005
Au       1.4764387170000000       13.6387373140000001       13.7944741769999997
Au       1.4764387170000000       15.3435803289999999       18.6165011770000000
Au       1.4764387170000000       15.3435803289999999       11.3834700000000009
Au       1.4764387170000000        0.0000000000000000       18.6165011770000000
Au       2.9528776720000001        0.8523992020000000       13.7944741769999997
Au       2.9528776720000001        4.2620872319999998       16.2054891770000005
Au       2.9528776720000001        5.9669342470000002       13.7944741769999997
Au       2.9528776720000001        9.3766222769999992       16.2054891770000005
Au       2.9528776720000001       11.0814682920000003       13.7944741769999997
Au       2.9528776720000001       14.4911563220000001       16.2054891770000005
Au       2.9528786720000002        2.5572442170000000       18.6165011770000000
Au       2.9528786720000002        2.5572442170000000       11.3834700000000009
Au       2.9528786720000002        7.6717792620000003       18.6165011770000000
Au       2.9528786720000002        7.6717792620000003       11.3834700000000009
Au       2.9528786720000002       12.7863133070000003       18.6165011770000000
Au       2.9528786720000002       12.7863133070000003       11.3834700000000009
Au       4.4293166260000003        1.7048222099999999       16.2054891770000005
Au       4.4293166260000003        3.4096682249999999       13.7944741769999997
Au       4.4293166260000003        5.1145112399999997       18.6165011770000000
Au       4.4293166260000003        5.1145112399999997       11.3834700000000009
Au       4.4293166260000003        6.8193562549999998       16.2054891770000005
Au       4.4293166260000003        8.5242032699999992       13.7944741769999997
Au       4.4293166260000003       10.2290462840000007       18.6165011770000000
Au       4.4293166260000003       10.2290462840000007       11.3834700000000009
Au       4.4293166260000003       11.9338912990000008       16.2054891770000005
Au       4.4293166260000003       13.6387373140000001       13.7944741769999997
Au       4.4293166260000003       15.3435803289999999       18.6165011770000000
Au       4.4293166260000003       15.3435803289999999       11.3834700000000009
Au       4.4293166260000003        0.0000000000000000       11.3834700000000009
Au       4.4293166260000003        0.0000000000000000       18.6165011770000000
Au       5.9057555800000001        0.8523992020000000       13.7944741769999997
Au       5.9057555800000001        4.2620872319999998       16.2054891770000005
Au       5.9057555800000001        5.9669342470000002       13.7944741769999997
Au       5.9057555800000001        9.3766222769999992       16.2054891770000005
Au       5.9057555800000001       11.0814682920000003       13.7944741769999997
Au       5.9057555800000001       14.4911563220000001       16.2054891770000005
Au       5.9057565800000003        2.5572442170000000       18.6165011770000000
Au       5.9057565800000003        2.5572442170000000       11.3834700000000009
Au       5.9057565800000003        7.6717792620000003       18.6165011770000000
Au       5.9057565800000003        7.6717792620000003       11.3834700000000009
Au       5.9057565800000003       12.7863133070000003       18.6165011770000000
Au       5.9057565800000003       12.7863133070000003       11.3834700000000009
Au       7.3821945339999999        1.7048222099999999       16.2054891770000005
Au       7.3821945339999999        3.4096682249999999       13.7944741769999997
Au       7.3821945339999999        5.1145112399999997       18.6165011770000000
Au       7.3821945339999999        5.1145112399999997       11.3834700000000009
Au       7.3821945339999999        6.8193562549999998       16.2054891770000005
Au       7.3821945339999999        8.5242032699999992       13.7944741769999997
Au       7.3821945339999999       10.2290462840000007       18.6165011770000000
Au       7.3821945339999999       10.2290462840000007       11.3834700000000009
Au       7.3821945339999999       11.9338912990000008       16.2054891770000005
Au       7.3821945339999999       13.6387373140000001       13.7944741769999997
Au       7.3821945339999999       15.3435803289999999       18.6165011770000000
Au       7.3821945339999999       15.3435803289999999       11.3834700000000009
Au       7.3821945339999999        0.0000000000000000       11.3834700000000009
Au       7.3821945339999999        0.0000000000000000       18.6165011770000000
Au       8.8586334890000007        0.8523992020000000       13.7944741769999997
Au       8.8586334890000007        4.2620872319999998       16.2054891770000005
Au       8.8586334890000007        5.9669342470000002       13.7944741769999997
Au       8.8586334890000007        9.3766222769999992       16.2054891770000005
Au       8.8586334890000007       11.0814682920000003       13.7944741769999997
Au       8.8586334890000007       14.4911563220000001       16.2054891770000005
Au       8.8586344889999999        2.5572442170000000       18.6165011770000000
Au       8.8586344889999999        2.5572442170000000       11.3834700000000009
Au       8.8586344889999999        7.6717792620000003       18.6165011770000000
Au       8.8586344889999999        7.6717792620000003       11.3834700000000009
Au       8.8586344889999999       12.7863133070000003       18.6165011770000000
Au       8.8586344889999999       12.7863133070000003       11.3834700000000009
Au      10.3350724429999996        1.7048222099999999       16.2054891770000005
Au      10.3350724429999996        3.4096682249999999       13.7944741769999997
Au      10.3350724429999996        5.1145112399999997       18.6165011770000000
Au      10.3350724429999996        5.1145112399999997       11.3834700000000009
Au      10.3350724429999996        6.8193562549999998       16.2054891770000005
Au      10.3350724429999996        8.5242032699999992       13.7944741769999997
Au      10.3350724429999996       10.2290462840000007       18.6165011770000000
Au      10.3350724429999996       10.2290462840000007       11.3834700000000009
Au      10.3350724429999996       11.9338912990000008       16.2054891770000005
Au      10.3350724429999996       13.6387373140000001       13.7944741769999997
Au      10.3350724429999996       15.3435803289999999       18.6165011770000000
Au      10.3350724429999996       15.3435803289999999       11.3834700000000009
Au      10.3350724429999996        0.0000000000000000       11.3834700000000009
Au      10.3350724429999996        0.0000000000000000       18.6165011770000000
Au      11.8115113970000003        0.8523992020000000       13.7944741769999997
Au      11.8115113970000003        4.2620872319999998       16.2054891770000005
Au      11.8115113970000003        5.9669342470000002       13.7944741769999997
Au      11.8115113970000003        9.3766222769999992       16.2054891770000005
Au      11.8115113970000003       11.0814682920000003       13.7944741769999997
Au      11.8115113970000003       14.4911563220000001       16.2054891770000005
Au      11.8115123969999996        2.5572442170000000       18.6165011770000000
Au      11.8115123969999996        2.5572442170000000       11.3834700000000009
Au      11.8115123969999996        7.6717792620000003       18.6165011770000000
Au      11.8115123969999996        7.6717792620000003       11.3834700000000009
Au      11.8115123969999996       12.7863133070000003       18.6165011770000000
Au      11.8115123969999996       12.7863133070000003       11.3834700000000009
Au      13.2879503519999993        1.7048222099999999       16.2054891770000005
Au      13.2879503519999993        3.4096682249999999       13.7944741769999997
Au      13.2879503519999993        5.1145112399999997       18.6165011770000000
Au      13.2879503519999993        5.1145112399999997       11.3834700000000009
Au      13.2879503519999993        6.8193562549999998       16.2054891770000005
Au      13.2879503519999993        8.5242032699999992       13.7944741769999997
Au      13.2879503519999993       10.2290462840000007       18.6165011770000000
Au      13.2879503519999993       10.2290462840000007       11.3834700000000009
Au      13.2879503519999993       11.9338912990000008       16.2054891770000005
Au      13.2879503519999993       13.6387373140000001       13.7944741769999997
Au      13.2879503519999993       15.3435803289999999       18.6165011770000000
Au      13.2879503519999993       15.3435803289999999       11.3834700000000009
Au      13.2879503519999993        0.0000000000000000       11.3834700000000009
Au      13.2879503519999993        0.0000000000000000       18.6165011770000000
Au      14.7643903059999992        0.8523992020000000       13.7944741769999997
Au      14.7643903059999992        2.5572442170000000       18.6165011770000000
Au      14.7643903059999992        2.5572442170000000       11.3834700000000009
Au      14.7643903059999992        4.2620872319999998       16.2054891770000005
Au      14.7643903059999992        5.9669342470000002       13.7944741769999997
Au      14.7643903059999992        7.6717792620000003       18.6165011770000000
Au      14.7643903059999992        7.6717792620000003       11.3834700000000009
Au      14.7643903059999992        9.3766222769999992       16.2054891770000005
Au      14.7643903059999992       11.0814682920000003       13.7944741769999997
Au      14.7643903059999992       12.7863133070000003       18.6165011770000000
Au      14.7643903059999992       12.7863133070000003       11.3834700000000009
Au      14.7643903059999992       14.4911563220000001       16.2054891770000005
Au      35.4050066670000021        0.8523992020000000       13.7944741769999997
Au      35.4050066670000021        2.5572442170000000       18.6165011770000000
Au      35.4050066670000021        2.5572442170000000       11.3834700000000009
Au      35.4050066670000021        4.2620872319999998       16.2054891770000005
Au      35.4050066670000021        5.9669342470000002       13.7944741769999997
Au      35.4050066670000021        7.6717792620000003       18.6165011770000000
Au      35.4050066670000021        7.6717792620000003       11.3834700000000009
Au      35.4050066670000021        9.3766222769999992       16.2054891770000005
Au      35.4050066670000021       11.0814682920000003       13.7944741769999997
Au      35.4050066670000021       12.7863133070000003       18.6165011770000000
Au      35.4050066670000021       12.7863133070000003       11.3834700000000009
Au      35.4050066670000021       14.4911563220000001       16.2054891770000005
Au      36.8814446210000000        1.7048222099999999       16.2054891770000005
Au      36.8814446210000000        3.4096682249999999       13.7944741769999997
Au      36.8814446210000000        5.1145112399999997       18.6165011770000000
Au      36.8814446210000000        5.1145112399999997       11.3834700000000009
Au      36.8814446210000000        6.8193562549999998       16.2054891770000005
Au      36.8814446210000000        8.5242032699999992       13.7944741769999997
Au      36.8814446210000000       10.2290462840000007       18.6165011770000000
Au      36.8814446210000000       10.2290462840000007       11.3834700000000009
Au      36.8814446210000000       11.9338912990000008       16.2054891770000005
Au      36.8814446210000000       13.6387373140000001       13.7944741769999997
Au      36.8814446210000000       15.3435803289999999       18.6165011770000000
Au      36.8814446210000000       15.3435803289999999       11.3834700000000009
Au      36.8814446210000000        0.0000000000000000       11.3834700000000009
Au      36.8814446210000000        0.0000000000000000       18.6165011770000000
Au      38.3578835750000025        0.8523992020000000       13.7944741769999997
Au      38.3578835750000025        4.2620872319999998       16.2054891770000005
Au      38.3578835750000025        5.9669342470000002       13.7944741769999997
Au      38.3578835750000025        9.3766222769999992       16.2054891770000005
Au      38.3578835750000025       11.0814682920000003       13.7944741769999997
Au      38.3578835750000025       14.4911563220000001       16.2054891770000005
Au      38.3578845749999999        2.5572442170000000       18.6165011770000000
Au      38.3578845749999999        2.5572442170000000       11.3834700000000009
Au      38.3578845749999999        7.6717792620000003       18.6165011770000000
Au      38.3578845749999999        7.6717792620000003       11.3834700000000009
Au      38.3578845749999999       12.7863133070000003       18.6165011770000000
Au      38.3578845749999999       12.7863133070000003       11.3834700000000009
Au      39.8343225300000014        1.7048222099999999       16.2054891770000005
Au      39.8343225300000014        3.4096682249999999       13.7944741769999997
Au      39.8343225300000014        5.1145112399999997       18.6165011770000000
Au      39.8343225300000014        5.1145112399999997       11.3834700000000009
Au      39.8343225300000014        6.8193562549999998       16.2054891770000005
Au      39.8343225300000014        8.5242032699999992       13.7944741769999997
Au      39.8343225300000014       10.2290462840000007       18.6165011770000000
Au      39.8343225300000014       10.2290462840000007       11.3834700000000009
Au      39.8343225300000014       11.9338912990000008       16.2054891770000005
Au      39.8343225300000014       13.6387373140000001       13.7944741769999997
Au      39.8343225300000014       15.3435803289999999       18.6165011770000000
Au      39.8343225300000014       15.3435803289999999       11.3834700000000009
Au      39.8343225300000014        0.0000000000000000       11.3834700000000009
Au      39.8343225300000014        0.0000000000000000       18.6165011770000000
Au      41.3107614839999968        0.8523992020000000       13.7944741769999997
Au      41.3107614839999968        4.2620872319999998       16.2054891770000005
Au      41.3107614839999968        5.9669342470000002       13.7944741769999997
Au      41.3107614839999968        9.3766222769999992       16.2054891770000005
Au      41.3107614839999968       11.0814682920000003       13.7944741769999997
Au      41.3107614839999968       14.4911563220000001       16.2054891770000005
Au      41.3107624840000014        2.5572442170000000       18.6165011770000000
Au      41.3107624840000014        2.5572442170000000       11.3834700000000009
Au      41.3107624840000014        7.6717792620000003       18.6165011770000000
Au      41.3107624840000014        7.6717792620000003       11.3834700000000009
Au      41.3107624840000014       12.7863133070000003       18.6165011770000000
Au      41.3107624840000014       12.7863133070000003       11.3834700000000009
Au      42.7872004379999993        1.7048222099999999       16.2054891770000005
Au      42.7872004379999993        3.4096682249999999       13.7944741769999997
Au      42.7872004379999993        5.1145112399999997       18.6165011770000000
Au      42.7872004379999993        5.1145112399999997       11.3834700000000009
Au      42.7872004379999993        6.8193562549999998       16.2054891770000005
Au      42.7872004379999993        8.5242032699999992       13.7944741769999997
Au      42.7872004379999993       10.2290462840000007       18.6165011770000000
Au      42.7872004379999993       10.2290462840000007       11.3834700000000009
Au      42.7872004379999993       11.9338912990000008       16.2054891770000005
Au      42.7872004379999993       13.6387373140000001       13.7944741769999997
Au      42.7872004379999993       15.3435803289999999       18.6165011770000000
Au      42.7872004379999993       15.3435803289999999       11.3834700000000009
Au      42.7872004379999993        0.0000000000000000       11.3834700000000009
Au      42.7872004379999993        0.0000000000000000       18.6165011770000000
Au      44.2636393929999983        0.8523992020000000       13.7944741769999997
Au      44.2636393929999983        4.2620872319999998       16.2054891770000005
Au      44.2636393929999983        5.9669342470000002       13.7944741769999997
Au      44.2636393929999983        9.3766222769999992       16.2054891770000005
Au      44.2636393929999983       11.0814682920000003       13.7944741769999997
Au      44.2636393929999983       14.4911563220000001       16.2054891770000005
Au      44.2636403930000029        2.5572442170000000       18.6165011770000000
Au      44.2636403930000029        2.5572442170000000       11.3834700000000009
Au      44.2636403930000029        7.6717792620000003       18.6165011770000000
Au      44.2636403930000029        7.6717792620000003       11.3834700000000009
Au      44.2636403930000029       12.7863133070000003       18.6165011770000000
Au      44.2636403930000029       12.7863133070000003       11.3834700000000009
Au      45.7400783470000007        1.7048222099999999       16.2054891770000005
Au      45.7400783470000007        3.4096682249999999       13.7944741769999997
Au      45.7400783470000007        5.1145112399999997       18.6165011770000000
Au      45.7400783470000007        5.1145112399999997       11.3834700000000009
Au      45.7400783470000007        6.8193562549999998       16.2054891770000005
Au      45.7400783470000007        8.5242032699999992       13.7944741769999997
Au      45.7400783470000007       10.2290462840000007       18.6165011770000000
Au      45.7400783470000007       10.2290462840000007       11.3834700000000009
Au      45.7400783470000007       11.9338912990000008       16.2054891770000005
Au      45.7400783470000007       13.6387373140000001       13.7944741769999997
Au      45.7400783470000007       15.3435803289999999       18.6165011770000000
Au      45.7400783470000007       15.3435803289999999       11.3834700000000009
Au      45.7400783470000007        0.0000000000000000       11.3834700000000009
Au      45.7400783470000007        0.0000000000000000       18.6165011770000000
Au      47.2165173010000032        0.8523992020000000       13.7944741769999997
Au      47.2165173010000032        4.2620872319999998       16.2054891770000005
Au      47.2165173010000032        5.9669342470000002       13.7944741769999997
Au      47.2165173010000032        9.3766222769999992       16.2054891770000005
Au      47.2165173010000032       11.0814682920000003       13.7944741769999997
Au      47.2165173010000032       14.4911563220000001       16.2054891770000005
Au      47.2165183010000007        2.5572442170000000       18.6165011770000000
Au      47.2165183010000007        2.5572442170000000       11.3834700000000009
Au      47.2165183010000007        7.6717792620000003       18.6165011770000000
Au      47.2165183010000007        7.6717792620000003       11.3834700000000009
Au      47.2165183010000007       12.7863133070000003       18.6165011770000000
Au      47.2165183010000007       12.7863133070000003       11.3834700000000009
Au      48.6929562549999986        1.7048222099999999       16.2054891770000005
Au      48.6929562549999986        3.4096682249999999       13.7944741769999997
Au      48.6929562549999986        5.1145112399999997       11.3834700000000009
Au      48.6929562549999986        5.1145112399999997       18.6165011770000000
Au      48.6929562549999986        6.8193562549999998       16.2054891770000005
Au      48.6929562549999986        8.5242032699999992       13.7944741769999997
Au      48.6929562549999986       10.2290462840000007       18.6165011770000000
Au      48.6929562549999986       10.2290462840000007       11.3834700000000009
Au      48.6929562549999986       11.9338912990000008       16.2054891770000005
Au      48.6929562549999986       13.6387373140000001       13.7944741769999997
Au      48.6929562549999986       15.3435803289999999       18.6165011770000000
Au      48.6929562549999986       15.3435803289999999       11.3834700000000009
Au      48.6929562549999986        0.0000000000000000       11.3834700000000009
Au      48.6929562549999986        0.0000000000000000       18.6165011770000000
C       6.7578535540000004        9.0719552740000005       23.5395631770000016
C       8.2803545070000002        9.0290152740000007       23.3279531770000013
C       8.8189944899999997        7.7043352619999999       23.8952731770000000
C       8.9105944869999991       10.2256852840000008       24.0623831770000010
C      10.3676544419999992        9.1346652749999997       21.4678231769999996
C      11.0692644199999997       10.3430952850000004       21.4945131770000017
C      11.0706044200000004        7.9296052640000001       21.3801431770000008
C      12.4657743770000007       10.3467652850000000       21.4533431770000007
C      12.4682543769999992        7.9273252640000003       21.3391331770000008
C      13.1881043550000001        9.1416652749999994       21.3778131770000002
C      14.6781943090000002        9.2186852760000004       21.3420831769999992
C      15.5034642829999996        8.1521352660000002       21.2803231769999996
C      16.9940342370000010        8.2287552670000004       21.2533631770000007
C      17.7127242150000015        9.4405052779999998       21.2787631769999983
C      17.7168342139999986        7.0256652559999999       21.2039631769999986
C      19.1102341709999983        9.4387052780000005       21.2577631770000011
C      19.1144041710000003        7.0238452560000004       21.1838331770000003
C      19.8330941490000008        8.2355252669999999       21.2118831770000007
C      21.3238641029999982        8.3118752679999997       21.2010431769999990
C      22.1500740769999993        7.2445052580000002       21.1747331770000002
C      23.6409240310000008        7.3209552589999998       21.1773231770000017
C      24.3590640090000008        8.5331652699999996       21.1954031769999993
C      24.3645040090000009        6.1173352479999998       21.1667331770000011
C      25.7566739660000010        8.5313552700000006       21.2056031770000004
C      25.7622039650000012        6.1155252480000000       21.1778231770000005
C      26.4802139429999990        7.3277352589999998       21.1990631769999993
C      27.9708238969999989        7.4044252600000000       21.2208031770000005
C      28.7975438709999985        6.3371752499999996       21.2331031770000003
C      30.2879838250000013        6.4146452509999996       21.2673931769999989
C      31.0050638029999988        7.6275352620000003       21.2818231769999997
C      31.0121738029999996        5.2115552410000001       21.2912831770000004
C      32.4021037600000028        7.6269952620000003       21.3212531769999991
C      32.4093937600000004        5.2110452409999999       21.3312731769999999
C      33.1262037369999973        6.4240252509999998       21.3480231770000017
C      34.6160536909999976        6.5023852519999998       21.3964431769999983
C      35.4433636660000033        5.4363052429999996       21.4354031770000013
C      36.9328036200000014        5.5162952430000001       21.4909831770000004
C      37.6486735969999984        6.7335152540000003       21.5028531769999987
C      37.6587335970000012        4.3116052329999999       21.5323931769999994
C      39.0456235540000023        6.7343252539999998       21.5591731770000017
C      39.0548735539999967        4.3183652329999997       21.5886931769999997
C      39.7521635319999973        5.5292652430000002       21.6119531770000002
C      41.1763234880000013        6.7867152539999998       24.1482531770000008
C      41.2821734850000013        4.2603952319999996       24.1399131770000004
C      41.8202134679999986        5.5500352440000000       23.4965331769999999
C      43.3401634209999997        5.6149252440000001       23.7205431769999997
S       8.5685744980000003        9.1339852750000006       21.5053831769999988
S      41.5507534770000007        5.5388252429999998       21.6681831769999995
H       6.2668045689999996        8.2215352670000001       23.0188431770000008
H       6.3338345670000002       10.0168152829999997       23.1358431770000017
H       6.5055245619999997        9.0107752740000002       24.6205831770000003
H       8.3658645039999993        6.8397752550000002       23.3644531770000015
H       8.5262844990000008       11.1830952929999992       23.6498731769999999
H       8.5798044969999996        7.6177252620000004       24.9772531770000015
H       8.6699144950000004       10.1877752840000007       25.1468531770000006
H       9.9209844559999993        7.6440652619999998       23.7950931769999983
H      10.0151144530000007       10.2170852839999995       23.9709831770000008
H      10.5332944370000003       11.2821252940000001       21.5507031769999990
H      10.5337844369999996        6.9898552560000002       21.3466631769999999
H      12.9598243620000009        6.9694052559999999       21.2767931769999983
H      12.9835543609999995       11.2979352940000002       21.4809731769999992
H      15.0837642960000000        7.1557352580000000       21.2521931769999988
H      15.0976142959999997       10.2150852840000006       21.3738631770000005
H      17.1971342309999997        6.0750952480000002       21.1833931769999992
H      17.2201242299999997       10.3992752860000000       21.3164231770000008
H      19.6071541560000000        6.0650652479999998       21.1481831769999999
H      19.6299141550000016       10.3892452859999995       21.2806031769999997
H      21.7309740900000001        6.2476052500000003       21.1571031769999998
H      21.7429840900000002        9.3086652759999993       21.2231131769999983
H      23.8452540249999991        5.1663852400000003       21.1530731769999996
H      23.8659540240000005        9.4923652779999994       21.2040631769999983
H      26.2555939500000015        5.1564252399999999       21.1716331770000004
H      26.2758239499999995        9.4823052780000001       21.2220331770000001
H      28.3790638840000007        5.3398852420000003       21.2241331769999988
H      28.3892238839999997        8.4016552680000007       21.2336031769999991
H      30.4937538189999984        4.2601152320000004       21.2815031770000012
H      30.5115538179999994        8.5864052700000002       21.2649831770000013
H      32.9033937439999988        4.2524052320000001       21.3500431769999999
H      32.9203537440000034        8.5785152700000005       21.3331531769999998
H      35.0262636790000030        4.4383952339999997       21.4305531770000002
H      35.0334336780000015        7.5000852609999997       21.4034931770000014
H      37.1440736130000033        3.3584152239999998       21.5207931770000016
H      37.1547036130000023        7.6915852620000003       21.4688931770000018
H      39.5794135379999972        7.6763852620000002       21.5650531769999994
H      39.5935935369999967        3.3796452250000000       21.6170531769999990
H      40.0728535220000026        6.7659752539999998       24.0470231769999998
H      40.1816935189999995        4.1875452319999997       24.0314731769999987
H      41.4062134810000018        6.8182652550000000       25.2352531770000006
H      41.5097834780000028        4.2431152320000001       25.2277031769999986
H      41.5598134760000022        7.7186152620000001       23.6802731770000001
H      41.7456534709999971        3.3669752239999999       23.6692231769999992
H      43.5814234139999996        5.6230652440000002       24.8057731769999990
H      43.7635334080000007        6.5350952519999996       23.2627031769999988
H      43.8410534060000003        4.7364452359999998       23.2591731770000010